opendss_networks/LV10_223bus/Switches.dss
new line.Switch_329_CLOSED lineCode=ughv_400al_triplex_ug_4w_bundled bus1=B1580 bus2=B3119 length=0.00100000000000 units=km switch=y phases=4
new line.Switch_393_CLOSED lineCode=ughv_400al_triplex_ug_4w_bundled bus1=B909 bus2=B1036 length=0.00100000000000 units=km switch=y phases=4
! new line.Switch_1343_OPEN lineCode=ughv_400al_triplex_ug_4w_bundled bus1=B345 bus2=B495 length=0.00100000000000 units=km switch=y phases=4
new line.Switch_2015_CLOSED lineCode=ughv_400al_triplex_ug_4w_bundled bus1=B3259 bus2=B1876 length=0.00100000000000 units=km switch=y phases=4
new line.Switch_2194_CLOSED lineCode=ughv_400al_triplex_ug_4w_bundled bus1=B2511 bus2=B3122 length=0.00100000000000 units=km switch=y phases=4
new line.Switch_2861_CLOSED lineCode=ughv_400al_triplex_ug_4w_bundled bus1=B2248 bus2=B871 length=0.00100000000000 units=km switch=y phases=4
new line.Switch_3111_CLOSED lineCode=ughv_400al_triplex_ug_4w_bundled bus1=B576 bus2=B839 length=0.00100000000000 units=km switch=y phases=4
new line.Switch_3529_CLOSED lineCode=ughv_400al_triplex_ug_4w_bundled bus1=B2663 bus2=B2612 length=0.00100000000000 units=km switch=y phases=4
new line.Switch_4237_CLOSED lineCode=ughv_400al_triplex_ug_4w_bundled bus1=B841 bus2=B1868 length=0.00100000000000 units=km switch=y phases=4
new line.Switch_4379_CLOSED lineCode=ughv_400al_triplex_ug_4w_bundled bus1=B3310 bus2=B2704 length=0.00100000000000 units=km switch=y phases=4
new line.Switch_4535_CLOSED lineCode=ughv_400al_triplex_ug_4w_bundled bus1=B2073 bus2=B531 length=0.00100000000000 units=km switch=y phases=4
